Version 4.1
SHEET 1 880 680
SYMBOL cap 32 0 R0
SYMATTR InstName C1
SYMBOL cap 128 64 R0
SYMATTR InstName C2
